LTspice 24.1.10 for Windows
Circuit: C:\Users\PRIZMÆ\Documents\FM_transmitter\FM Transmitter\LTSpice Sims\BypassCapTesting.net
Start Time: Sat Jul  4 20:39:32 2026
solver = Normal
Maximum thread count: 8
tnom = 27
temp = 27
method = trap
Direct Newton iteration for .op point succeeded.
.step cshunt=4.7e-10
.step cshunt=1e-09
.step cshunt=2.2e-09
.step cshunt=4.7e-09
Total elapsed time: 0.250 seconds.

Files loaded:
C:\Users\PRIZMÆ\Documents\FM_transmitter\FM Transmitter\LTSpice Sims\BypassCapTesting.net

